Competition: MLS Reserve League
Season: 2012

3/13/2012; Houston Dynamo Reserves; 1-0; Colorado Rapids Reserves; Houston Amateur Sports Park
Brian Ownby (unassisted) 80; 
Colorado Rapids Reserves: Stew Ceus (Ian Joyce 46), Eddie Ababio, Tyrone Marshall, Scott Palguta, Dillon Serna (Steven Emory 62), Wells Thompson, Joseph Nane, Luis Eduardo Schmidt (Davy Armstrong 89), Ross LaBauex, Quincy Amarikwa (Josh Janniere), Andre Akpan (Kohei Yamada 80).
Houston Dynamo Reserves: Tyler Deric, Warren Creavalle, Nathan Sturgis, Jermaine Taylor, Oscar Recio, Josue Soto (Colin Rolfe 69), Luiz Camargo, Alex Dixon, Mac Kandji, Calen Carr (Brian Ownby 69), Cam Weaver
Substitutes Not Used: Alan Arellano, Christian Gonzalez, Erich Marscheider.
Source: http://www.houstondynamo.com/news/2012/03/ownbys-strike-propels-dynamo-victory

3/13/2012; FC Dallas Reserves; 3-1; Real Salt Lake Reserves; FC Dallas Stadium
Bryan Leyva (Jonathan Top) 60, Luis Perea (Mike Ambrose) 84, Jonathan Top (Luis Perea) 87; Emiliano Bonfigli (Cody Arnoux) 9
FC Dallas Reserves: Chris Seitz, Alex Lee (Mike Ambrose 83), George John, Matt Hedges, Moises Hernandez, Bobby Warshaw, Victor Ulloa (Bruno Guarda 55), Bryan Leyva, Andrew Wiedeman (Danny Garcia 90), Jonathan Top, Ruben Luna (Luis Perea 45).
Substitutes Not Used: Eduardo Cortez, Mark Ashby, Kellyn Acosta.
Real Salt Lake Reserves: Kyle Reynish, Nat Borchers (Carlos Salcedo), Leone Cruz, Terukazu Tanaka, Diogo de Almeida, Yordany Alvarez, Enzo Martinez (Jordan Allen 66), Jonny Steele, Nico Muniz (Lucas Acosta 45), Cody Arnoux, Emiliano Bonfigli.
Source: http://www.fcdallas.com/news/2012/03/reserves-fc-dallas-3-real-salt-lake-1

3/20/2012; Colorado Rapids Reserves; 0-1; FC Dallas Reserves; DSG Park Field 20
; Bryan Leyva (unassisted) 84
Colorado Rapids Reserves: Steward Ceus (Ian Joyce 46), Eddie Ababio, Tyrone Marshall, Scott Palguta, Hunter Freeman (Dillon Serna 73), Ross LaBauex (Josh Janniere 63), Joseph Nane, Wells Thompson (Steven Emory 57), Edu, Kamani Hill, Andre Akpan (Kohei Yamada 70)
Substitutes Not Used: Franco Donado, Davy Armstrong
FC Dallas Reserves: Chris Seitz, Alex Lee (Mike Ambrose 87), Victor Ulloa, Matt Hedges, Moises Hernandez, Bryan Leyva, Bruno Guarda, Bobby Warshaw, Andrew Wiedeman (Mark Ashby 79), Ruben Luna (Jonathan Top 63), Luis Perea
Substitutes Not Used: Danny Garcia, Richard Sanchez
Source: http://www.coloradorapids.com/news/2012/03/late-dallas-goal-hands-reserves-second-straight-loss

3/20/2012; Real Salt Lake Reserves; 1-1; Sporting Kansas City Reserves; Real Salt Lake Reserves Training Field
Nico Muñiz (unassisted) 58; Dom Dwyer (Korede Aiyegbusi) 88
Real Salt Lake Reserves: Kyle Reynish; Chris Estridge, Nat Borchers (Carlos Salcedo 67), Leone Cruz, Diogo de Almeida (Terukazu Tanaka 75); Jonny Steele, Yordany Alvarez, Enzo Martinez, Will Johnson (Nico Muñiz 45); Álvaro Saborío, Cody Arnoux (Emiliano Bonfigli 45)
Sporting Kansas City Reserves: Jon Kempin; Shawn Singh (Kyle Miller 82), Lawrence Olum, Cyprian Hedrick (Konrad Warzycha 71), Michael Harrington; Korede Aiyegbusi, Paulo Nagamura (Michael Thomas 62), Luke Sassano; Jacob Peterson (Kevin Ellis 67), Soony Saad, Dom Dwyer
Source: http://www.realsaltlake.com/news/2012/03/mls-reserve-league-recap-real-salt-lake-1-1-sporting-kc

3/24/2012; Columbus Crew Reserves; 1-2; Montreal Impact Reserves; Crew Stadium
Aubrey Perry 89; Lamar Neagle (Andrew Wenger) 23, Miguel Montaño 55
Columbus Crew Reserves: William Hesmer (Matt Lampson 46), Aubrey Perry, Eric Gehrig, Josh Williams (Alex Crognale 74), Nemanja Vukovic (Rhodes Moore 71), Korey Veeder, Cole Grossman, Tony Tchani, Justin Meram (Omar Mohamed 62), Ethan Finlay, Aaron Schoenfeld (Aaron Horton 46)
Montreal Impact Reserves: Greg Sutton, Gienir Garcia (Francesco Augustin 77), Shavar Thomas, Karl Ouimette, Calum Mallace, Lamar Neagle (Wandrille Lefevre 62), Bryan Arguez, Sinisa Ubiparipovic (Anthony Jackson-Hamel 71), Miguel Montaño, Andrew Wenger, Mike Fucito
Source: http://www.thecrew.com/news/2012/03/crew-reserves-drop-2-1-decision-montreal-impact-reserves

3/26/2012; Vancouver Whitecaps Reserves; 1-1; Seattle Sounders Reserves; University of British Columbia
Carlyle Mitchell (Omar Salgado) 90+1; Alex Caskey 72
Vancouver Whitecaps Reserves: Brad Knighton; Greg Klazura, Michael Boxall, Carlyle Mitchell, Jordan Harvey (Sam Adekugbe 45); Yassin Essa (Carlos Marquez 27), Gershon Koffie, Floyd Franks (Ben McKendry 53), Ben Fisk, Omar Salgado, Long Tan
Seattle Sounders Reserves: Bryan Meredith; Ian Lange, Jeff Parke, Daniel Steres, Leonardo Gonzalez; Mike Seamon (Dominique Dismuke 70), Andy Rose, Servando Carrasco, Christian Sivebaek; Sammy Ochoa, Alex Caskey
Source: http://www.whitecapsfc.com/news/2012/03/whitecaps-fc-draw-mls-reserve-league-season-opener-versus-seattle

3/27/2012; Chicago Fire Reserves; 1-0; Real Salt Lake Reserves; Toyota Park Practice Field
Corben Bone (unassisted) 9;
Chicago Fire Reserves: Jay Nolly; Tony Walls, Kwame Watson-Siriboe, Austin Berry, Hunter Jumper; Rafael Robayo (Victor Pineda 62), Daniel Paladini, Michael Videira; Corben Bone; Orr Barouch (Lucky Mkosana 77), Federico Puppo (Kheli Dube 59)
Substitutes Not Used: Paolo Tornaghi, Keaton Albert, Luis Baraja, Kellen Gulley
Real Salt Lake Reserves: Kyle Reynish; Chris Estridge, Carlos Salcedo, Leone Cruz, Terukazu Tanaka (Nico Muniz 73), Yordany Alvarez, Will Johnson (Diogo de Almeida 73), Jonathan Steele, Enzo Martinez, Emiliano Bonfigli; Jose Carlos Nunez (Eti Travares 57)
Substitutes Not Used: Lalo Fernandez, Ricardo Velasco
Source: http://www.chicago-fire.com/news/2012/03/reserve-league-fire-defeat-real-salt-lake-1-0

3/27/2012; Sporting Kansas City Reserves; 0-3; Houston Dynamo Reserves; Livestrong Sporting Park
; Cam Weaver (Alex Dixon) 58, Alex Dixon (Josue Soto) 75, Colin Rolfe (Alex Dixon) 79
Houston Dynamo Reserves: Tyler Deric, Warren Creavalle, Nathan Sturgis, Bradley Bourgeois, Oscar Recio; Brian Ownby (Josue Soto 18), Luiz Camargo, Calen Carr, Alex Dixon; Cam Weaver (Colin Rolfe 77), Mac Kandji
Substitutes Not Used: Eric Marscheider, Alan Arellano, Christian Gonzalez
Sporting Kansas City Reserves: Jon Kempin; Michael Harrington, Lawrence Olum, Cyprian Hedrick, Shawn Singh (Kevin Ellis 62); Luke Sassano (Edvin Worley 73), Paulo Nagamura, Michael Thomas (Konrad Warzycha 62); Jacob Peterson (Kyle Miller 77), Dom Dwyer, Korede Aiyegbusi
Substitutes Not Used: Steve Spangler
Source: http://www.sportingkc.com/news/2012/03/reserve-league-recap-skc-falls-3-0-houston

3/27/2012; San Jose Earthquakes Reserves; 1-0; Portland Timbers Reserves; Nutrilite Training Facility
Jean-Marc Alexandre (Alan Gordon, Anthony Ampaipitakwong) 53; 
San Jose Earthquakes Reserves: David Bingham, Brad Ring (Jacob Hustedt 90), Jason Hernandez, Kyle Kaveny, Josh Suggs (Christian De Luna 81), Sam Garza, Jean-Marc Alexandre, Anthony Ampaipitakwong (Julio Cervantes 74), Simon Dawkins, Alan Gordon (Ellis McLoughlin 61), Sercan Guvenisik (Cesar Diaz Pizarro 24).
Substitutes Not Used: Evan Newton.
Portland Timbers Reserves: Joe Bendik, Ryan Kawulok, Steve Purdy, Chris Taylor, Kasali Casal, Charles Renken, Mike Chabala, Freddie Braun, Brent Richards, Bright Dike, Sebastián Rincón (Sal Zizzo 67).
Substitutes Not Used: Doug Herrick, Dylan Leslie.
Source: http://www.sjearthquakes.com/news/2012/03/recap-quakes-edge-timbers-reserve-league-opener-1-0

3/31/2012; Toronto FC Reserves; 0-1; Columbus Crew Reserves; BMO Field
; Ethan Finlay 58
Toronto FC Reserves: Quillan Roberts, Chris Manella, Aaron Maund, Adrian Cann (Sergio Camargo 46), Tyler Pasher, Oscar Cordon, Junior Burgos, Eric Avila, Omari Morris, Keith Makubuya, Jordan Hamilton
Substitutes Not Used: None
Columbus Crew Reserves: William Hesmer, Aubrey Perry, Korey Veeder, Josh Williams (Aaron Horton 69), Nemanja Vukovic, Ethan Finlay, Kevan George, Cole Grossman, Tony Tchani, Dilly Duka (Justin Meram 32), Aaron Schoenfeld (Rhodes Moore 75)
Substitutes Not Used: Matt Lampson, Blas Iribarren

4/1/2012; New York Red Bulls Reserves; 3-1; Montreal Impact Reserves; Montclair State University
Tyler Ruthven (unassisted) 13, Jhonny Arteaga (Jose Angulo) 48, Victor Palsson (Ryan Maduro) 87; Miguel Montano (Gienir Garcia) 30
New York Red Bulls Reserves: Jeremy Vuolo; Connor Lade, Stephen Keel, Tyler Ruthven, Jonathan Borrajo, Corey Hertzog (Giorgi Chirgadze 74), Victor Palsson, Mehdi Ballouchy (Ryan Maduro 66), Brandon Barklage, Jhonny Arteaga, Jose Angulo
Substitutes Not Used: Mike Mizullo
Montreal Impact Reserves: Greg Sutton; Calum Mallace (Zarek Valentin 58), Shavar Thomas (Jeb Brovsky 46), Karl Ouimette, Gienir Garcia, Miguel Montano, Bryan Arguez, Collen Warner (Lamar Neagle 46), Sinisa Ubiparipovic (Lefevre Wandrille 58), Andrew Wenger (Justin Braun 46), Mike Fucito
Substitutes Not Used: Evan Bush (GK), Anthony Jackson
Source: http://www.newyorkredbulls.com/news/2012/04/red-bulls-reserves-defeat-montreal-reserves-3-1

4/2/2012; Colorado Rapids Reserves; 2-1; Chicago Fire Reserves; DSG Park Field 20
Andre Akpan 36, Andre Akpan 85; Federico Puppo 60
Colorado Rapids Reserves: Stew Ceus, Hunter Freeman, Tyrone Marshall, Scott Palguta, Eddie Ababio, Joseph Nane, Wells Thompson (Dillon Serna 77'), Kamani Hill (Josh Janniere 72'), Kohei Yamada (Davy Armstrong 84'), Quincy Amarikwa, Andre Akpan
Substitutes Not Used: Ian Joyce, Ricardo Perez, Shane O'Neill, Izaac Martinez
Chicago Fire Reserves: Sean Johnson; Tony Walls, Austin Berry, Kwame Watson-Siriboe, Hunter Jumper; Kheli Dube (Collin Audley 80), Daniel Paladini (Victor Pineda 59), Micheal Videira; Corben Bone; Orr Barouch (Kellen Gulley 86), Federico Puppo (Lucky Mkosana 77)
Substitutes Not Used: Jay Nolly
Source: http://www.coloradorapids.com/news/2012/04/reserves-defeat-fire-2-1-first-win-season

4/2/2012; Los Angeles Galaxy Reserves; 2-4; Chivas USA Reserves; Training or University Field
Chad Barrett (Adam Cristman 1) 71, Chad Barrett (Adam Cristman 2) 83; Miller Bolaños (Blair Gavin) 54, Cesar Romero (Unassisted) 58, Cesar Romero (Blair Gavin) 60, Cesar Romero (Unassisted) 86
Los Angeles Galaxy Reserves: Bill Gaudette; Bryan Jordan, Tommy Meyer, Bryan Gaul, Dan Keat; Hector Jimenez, Kenney Walker (Rafael Garcia 61), Michael Stephens (Jose Villarreal 61), Kyle Nakazawa (Raul Mendiola 80); Chad Barrett, Pat Noonan (Adam Cristman 59).
Substitutes Not Used: Jordan King, Justin Davies.
Chivas USA Reserves: Tim Melia; Scott Gordon (Carlos Torres 73), John Valencia, David Lopes, Gerardo Torres; Pete Vagenas (Marco Delgado 46), Ben Zemanski, Jorge Villafaña, Blair Gavin (Matt Dallman 65); Cesar Romero, Miller Bolaños.
Source: http://www.lagalaxy.com/news/2012/04/la-galaxy-fall-4-2-chivas-usa-reserve-league-opener

4/7/2012; Columbus Crew Reserves; 2-1; New York Red Bulls Reserves; Crew Stadium
Aaron Schoenfeld (Nemanja Vukovic) 70, Justin Meram (Nemanja Vukovic) 87; Tyler Ruthven (Jose Angulo) 90
Columbus Crew Reserves: Matt Lampson, Aubrey Perry, Korey Veeder, Josh Williams, Nemanja Vukovic, Ethan Finlay (Rhodes Moore 46), Cole Grossman, Tony Tchani (Alex Crognale 81), Dilly Duka (Kevan George 25), Justin Meram (Ben Swanson 89), Aaron Schoenfeld (Brett Elder 76).
Substitutes Not Used: Carter Richardson.
New York Red Bulls Reserves: Jeremy Vuolo, Connor Lade, Tyler Ruthven, Michael Mazzullo, Jonathan Borrajo, Joel Lindpere (Corey Hertzog 37), Ryan Maduro (Giorgi Chirgadze 76), Victor Palsson, Brandon Barklage, Jose Angulo, Johnny Arteaga
Substitutes Not Used: Mael Corboz, Scott Thomsen
Source: http://www.thecrew.com/news/2012/04/mls-reserve-league-columbus-crew-defeats-new-york-red-bulls-2-1

4/8/2012; Real Salt Lake Reserves; 0-1; Colorado Rapids Reserves; RSL Training Field
; Tony Cascio (Davy Armstrong) 26
Real Salt Lake Reserves: Kyle Reynish; Terukazu Tanaka, Leone Cruz, Chris Schuler, Diogo de Almeida (Chris Estridge 45); Enzo Martinez (Ricardo Velasco 45), Yordany Alvarez, Jordan Allen, Jonny Steele (Maikon Orellana 82); Paulo Junior, Emiliano Bonfigli
Colorado Rapids Reserves: Ian Joyce, Davy Armstrong, Scott Palguta, Hunter Freeman, Dillon Serna, Joseph Nane (Ricardo Perez 89), Kohei Yamada, Wells Thompson, Kamani Hill (Shane O'Neill 78), Tony Cascio (Josh Janniere 68), Andre Akpan
Source: http://www.realsaltlake.com/news/2012/04/mls-reserve-league-recap-real-salt-lake-0-1-colorado-rapids

4/8/2012; San Jose Earthquakes Reserves; 1-2; Vancouver Whitecaps Reserves; Nutrilite Training Facility
Anthony Ampaipitakwong (Sam Garza); Long Tan (Atiba Harris), Atiba Harris (Omar Salgado) 78
Vancouver Whitecaps Reserves: Brad Knighton; Greg Klazura, Michael Boxall, Carlyle Mitchell, Russell Teibert; Atiba Harris, Matt Watson, Bryce Alderson (Ben McKendry 78), Ben Fisk (Sam Adekugbe 55); Omar Salgado, Long Tan (Caleb Clarke 68)
Substitutes Not Used: 24.Callum Irving
San Jose Earthquakes Reserves: David Bingham; Josh Suggs, Jason Hernandez, Ike Opara, Brad Ring; Ellis McLoughlin, Anthony Ampaipitakwong, Jean-Marc Alexandre; Sam Garza, Sullivan Silva, Cesar Diaz Pizarro
Substitutes Not Used: 13.Evan Newton, 29.Elisamo Padilla, 43.Christian De Luna
Source: http://www.whitecapsfc.com/news/2012/04/whitecaps-fc-earn-first-mls-reserve-league-win-2012-san-jose

4/9/2012; Philadelphia Union Reserves; 4-2; New England Revolution Reserves; Chester Park
Josue Martinez (Antoine Hoppenot) 22, Antoine Hoppenot (Zach Pfeffer) 62, Cristhian Hernandez (Josue Martinez) 87, Josue Martinez (Unassisted) 65; Kenny Mansally (Penalty Kick) 19, Kenny Mansally (Mitch Taintor) 91
Philadelphia Union Reserves: Chase Harrison; Jimmy McLaughlin, Ray Gaddis, Greg Jordan, Cristhian Hernandez; Amobi Okugo, Zach Pfeffer, Roger Torres (Chandler Hoffman 34), Jack McInerney (Keegan Rosenberry); Antoine Hoppenot, Josue Martinez (Darius Madison 66).
Substitutes Not Used: Danny Mwanga
New England Revolution Reserves: Bobby Shuttleworth (Dominik Machado 73); Darrius Barnes, John Lozano (Mitch Taintor 73), Kevin Garcia, Tyler Polak (Ramiro Osorio 83); Jeremiah White, Michael Roach, Alec Purdie, Kenny Mansally; Diego Fagundez, Blake Brettschneider
Substitutes Not Used: Matt Mozynski
Source: http://www.philadelphiaunion.com/news/2012/04/recap-union-top-revolution-4-2-kick-12-reserve-league-schedule

4/10/2012; Sporting Kansas City Reserves; 1-0; Chicago Fire Reserves; Livestrong Sporting Park

4/10/2012; FC Dallas Reserves; 0-1; Houston Dynamo Reserves; FC Dallas Stadium
; Cam Weaver (Colin Rolfe) 83
FC Dallas Reserves: Chris Seitz, Matt Hedges, Moises Hernandez, Mark Barone (Aaron Guillen 76), Alex Lee (Jose De La Tejera 68), Bobby Warshaw, Bruno Guarda, Bryan Leyva, Victor Ulloa, Mike Ambrose, Ruben Luna.
Substitutes Not Used: Richard Sanchez, Nick Rochowski.
Houston Dynamo Reserves: Tyler Deric, Kofi Sarkodie, Warren Creavalle, Jermaine Taylor, Oscar Recio, Brian Ownby (Colin Rolfe 62), Adam Moffat, Calen Carr, Alex Dixon (Josue Soto 62), Cam Weaver (Christian Gonzalez 88), Macoumba Kandji.
Substitutes Not Used: Eric Marscheider.
Source: http://www.fcdallas.com/news/2012/04/reserves-fc-dallas-0-houston-dynamo-1

4/10/2012; Seattle Sounders Reserves; 0-2; Portland Timbers Reserves; Starfire Sports Complex

4/11/2012; Toronto FC Reserves; 0-1; Montreal Impact Reserves; BMO Field
; Mike Fucito 34
Toronto FC Reserves: Quillan Roberts; Aaron Maund, Adrian Cann (Doneil Henry 63), Logan Emory, Tyler Pasher; Matt Stinson (Michael Wagenknecht 45), Oscar Cordon, Efrain Burgos Jr.; Reggie Lambe (Omari Morris 45), Mario Kovacevic, Keith Makubuya (Jordan Hamilton 67)
Montreal Impact Reserves: Evan Bush; Gienir Garcia, Hassoun Camara, Karl Ouimette, Jeb Brovsky (Zarek Valentin); Bryan Arguez, Sinisa Ubiparipovic (Wandrille Lefevre), Carl Haworth, Evan James; Eduardo Sebrango (Anthony Jackson-Hamel), Mike Fucito
Source: http://www.torontofc.ca/news/2012/04/experienced-side-beats-reserves

4/15/2012; Philadelphia Union Reserves; 0-4; Columbus Crew Reserves; Chester Park
; Emilio Renteria 12, Emilio Renteria (Nemenja Vukovic) 20, Emilio Renteria (Tony Tchani) 38, Cole Grossman (Emilio Renteria) 41
Philadelphia Union Reserves: Chris Konopka, Jimmy McLaughlin, Andrew Marshall, Porfirio Lopez, Cristhian Hernandez (Colton Storm 73), Amobi Okugo (Keegan Rosenberry 64), Greg Jordan, Zach Pfeffer, Jack McInerney, Chandler Hoffman, Antoine Hoppenot (Darius Madison 64).
* Subs: Chase Harrison, Josue Martinez
Columbus Crew Reserves: Matt Lampson, Aubrey Perry, Carlos Mendes (Korey Veeder 46), Josh Williams, Nemanja Vukovic, Cole Grossman, Kevan George (Aaron Horton 46), Tony Tchani, Bernardo Anor (Moore 65), Justin Meram, Emilio Renteria
* Subs: Carl Wosczynzowski
Source: http://www.philadelphiaunion.com/news/2012/04/recap-union-reserves-fall-4-0-crew-ppl-park 

4/16/2012; Chicago Fire Reserves; 1-0; Houston Dynamo Reserves; Toyota Park Practice Field; Victor Herrera, Ethan Buege, Cesar Ibarra, Jordan A. Pranuk
Federico Puppo (unassisted) 7; 
Chicago Fire Reserves: Paolo Tornaghi; Hunter Jumper, Austin Berry, Stefan Antonijevic, Tony Walls; Rafael Robayo, Sola Abolaji (Drew Conner 66), Michael Videira; Corben Bone; Federico Puppo (Kellen Gulley 81), Orr Barouch (Lucky Mkosana 56)
Substitutes Not Used: Jay Nolly, Joel Salmeron
Houston Dynamo Reserves: Tyler Deric; Kofi Sarkodie, Adam Moffat, Warren Creavalle, Oscar Recio; Macoumba Kandji, Alex Dixon, Calen Carr, Brian Ownby (Bradley Bourgeois 33); Cam Weaver, Colin Rolfe
Substitutes Not Used: Erich Marscheider, Christian Gonzalez
Source: http://www.chicago-fire.com/news/2012/04/reserve-league-fire-top-dynamo-1-0

4/16/2012; Los Angeles Galaxy Reserves; 1-0; Seattle Sounders Reserves; Training or University Field; Juan Guzman, Luis Gutierrez and Bernhard Hosu, Shahin Torosian
Rafael Garcia (Raul Mendiola) 90; 
Red Card: Christian Sivebaek 69
Los Angeles Galaxy Reserves: Bill Gaudette; Bryan Jordan (Oscar Sorto 87), Andrew Boyens, Dan Keat, Bryan Gaul; Hector Jimenez, Kenney Walker, Marcelo Sarvas (Rafael Garcia 60), Kyle Nakazawa (Raul Mendiola 77); Pat Noonan (Jose Villarreal 77), Adam Cristman.
* Substitutes Not Used: Jordan King.
Seattle Sounders Reserves: Bryan Meredith; Roger Levesque, John Kennedy Hurtado, Andrew Duran, Marc Burch; Cordell Cato, Servando Carrasco, Andy Rose, Christian Sivebaek (Sent Off 69); Sammy Ochoa (Alex Caskey 87), Mike Seamon.
Substitutes Not Used: Brian Rowe, Jonathan Prieto, Armando Ochoa, Sean Morrison.

4/17/2012; Real Salt Lake Reserves; 0-3; FC Dallas Reserves; RSL Training Field;
; Jonathan Top (Ruben Luna) 41, Bruno Guarda (penalty kick) 49, Scott Sealy (Mike Ambrose) 54
Real Salt Lake Reserves: Kyle Reynish (c) (Lalo Fernandez 67); Terukazu Tanaka, Leone Cruz, Chris Schuler, Chris Estridge (Carlos Salcedo 75); Yordany Alvarez, Enzo Martinez (Jordan Allen 60), Jonny Steele, Sebastian Velasquez; Paulo Junior, Emiliano Bonfigli
Substitutes Not Used: Taylor Bowlin, Luis Gil
FC Dallas Reserves: Chris Seitz (c) (Richard Sanchez 45); Alex Lee, Matt Hedges (Aaron Guillen 88), Mark Barone, Moises Hernandez; Jonathan Top (Flavio Guzman 81), Bruno Guarda, Victor Ulloa, Michael Ambrose; Scott Sealy (David Robledo 60), Ruben Luna
Substitutes Not Used: Bryan Leyva
Source: http://www.fcdallas.com/news/2012/04/reserves-real-salt-lake-0-fc-dallas-3

4/22/2012; Vancouver Whitecaps Reserves; 0-3; Portland Timbers Reserves; Swangard Stadium
; Brent Richards (Chris Taylor) 44, Franck Songo'o (Charles Renken) 65, Bright Dike (Charles Renken) 89
Portland Timbers Reserves: Brian Rowe, Freddie Braun (Cam Vickers 77), Ryan Kawulok, Futty Danso (Andrew Jean-Baptiste 45), Chris Taylor, Sal Zizzo (Sebastián Rincón 77), Franck Songo'o (Andreas Dober 89), Eric Alexander (Chris Andre 85), Charles Renken, Brent Richards, Bright Dike
Substitutes Not Used: Pasha Hashemi
Vancouver Whitecaps Reserves: Brad Knighton, Bobby Jhutty, Michael Boxall, Carlyle Mitchell, Greg Klazura, Atiba Harris, Michael Nanchoff (Reynold Stewart 60), Floyd Franks (Jacob Lensky 45), Bryce Alderson, Russell Teibert, Long Tan (James Farenhorst 73)
* Substitutes Not Used: n/a
Source: http://www.portlandtimbers.com/news/2012/04/timbers-defeat-whitecaps-fc-3-0-mls-reserve-league

4/23/2012; DC United Reserves; np; New York Red Bulls Reserves; DCU Training Field

4/23/2012; Chivas USA Reserves; 3-4; Seattle Sounders Reserves; Home Depot Center
Laurent Courtois (Blair Gavin) 9, Juan Pablo Angel (unassisted) 39, Casey Townsend (Juan Pablo Angel) 59; Cordell Cato (Roger Levesque) 12, Sammy Ochoa (Michael Seamon) 31, Andy Rose (Servando Carrasco) 62, Sammy Ochoa (Andrew Duran) 70
Chivas USA Reserves: Tim Melia, Carlos Torres (Mario Ledesma 35), Scott Gordon, John Valencia, Jorge Villafaña (Gerardo Torres 67), Marky Delgado, Blair Gavin (Erick Gonzalez 65), Laurent Courtois, Casey Townsend, Cesar Romero, Juan Pablo Angel (Victor Chavez 63)
Substitutes Not Used: Patrick McLain, Jorge Marquez, Javier Mena
Seattle Sounders Reserves: Bryan Meredith, Roger Levesque, Andrew Duran, Jhon Kennedy Hurtado, Marc Burch, Michael Seamon, Servando Carrasco, Andy Rose, David Estrada (Alex Caskey 58), Cordell Cato, Sammy Ochoa (Sean Morris 90)
Substitutes Not Used: Steve Spangler, Jonathan Prieto, Armando Ochoa.
Source: http://www.cdchivasusa.com/news/2012/04/reserve-match-chivas-usa-falls-4-3-seattle-sounders-fc

4/24/2012; Sporting Kansas City Reserves; 0-1; Colorado Rapids Reserves; Livestrong Sporting Park
; Andre Akpan (Wells Thompson) 84
Colorado Rapids Reserves: Steward Ceus; Hunter Freeman, Tyron Marshall, Scott Palguta, Eddie Ababio; Wells Thompson, Shane O'Neill, Dillon Serna; Kohei Yamada (Davy Armstrong 68), Josh Janniere (Ricardo Perez 87), Andre Akpan.
*Substitutes Not Used: Ian Joyce, Joseph Nane, Chris Gurule
Sporting Kansas City Reserves: Jon Kempin; Michael Harrington, Lawrence Olum, Konrad Warzycha, Kevin Ellis (Shawn Singh 80); Paulo Nagamura, Luke Sassano (Peterson Joseph 46), Soony Saad; Korede Aiyegbusi (Dom Dwyer 66), Teal Bunbury, Jacob Peterson.
Substitutes Not Used: Jacole Turner, Leo Gibson, Kyle Miller, Michael Thomas
Source: http://www.sportingkc.com/news/2012/04/skc-reserves-fall-colorado-1-0

5/1/2012; Sporting Kansas City Reserves; 2-2; FC Dallas Reserves; Livestrong Sporting Park
Michael Thomas (Soony Saad) 16, Dom Dwyer (Korede Aiyegbusi) 87; Ruben Luna (Danny Garcia) 39, Ruben Luna (Scott Sealy) 51
FC Dallas Reserves: Richard Sanchez; Alex Lee, Matt Hedges, Victor Ulloa, Moises Hernandez; Jonathan Top (Bryan Leyva 85); Bobby Warshaw, James Marcelin (Aaron Guillen 69), Danny Garcia (Michael Ambrose 46), Scott Sealy, Ruben Luna.
Substitutes Not Used: Eduardo Cortez
Sporting Kansas City Reserves: Jon Kempin; Korede Aiyegbusi, Konrad Warzycha, Lawrence Olum, Kevin Ellis; Luke Sassano, Michael Thomas, Peterson Joseph (Leo Gibson 56); Jacob Peterson (Kyle Miller 66), Soony Saad (David Leichty 77), Dom Dwyer (Teal Bunbury 88).
Substitutes Not Used: Jacole Turner, Erik Palmer-Brown
Source: http://www.sportingkc.com/news/2012/05/reserves-tie-dallas

5/8/2012; Los Angeles Galaxy Reserves; 1-1; San Jose Earthquakes Reserves; Training or University Field
Marcelo Sarvas (pk) 36; Sercan Guvenisik (pk) 31
Los Angeles Galaxy Reserves: Brian Perk; Hector Jimenez, Leonardo (Andrew Boyens 46), Dan Keat, Bryan Gaul; Kyle Nakazawa (Jack McBean), Michael Stephens, Kenney Walker, Marcelo Sarvas (Rafael Garcia 51); Pat Noonan (Jose Villarreal 74), Chad Barrett.
Substitutes Not Used: Brian Rowe, Nathan Smith
San Jose Earthquakes Reserves: David Bingham; Brad Ring, Ike Opara (Kyle Kaveny 46), Kareem Smith, Josh Suggs; Sam Garza, Tressor Moreno (Anthony Ampaipitakwong 46), Jean-Marc Alexandre, Ellis McLoughlin; Sercan Guvenisik, Cesar Diaz Pizarro (Cristian Cruz 81).
Substitutes Not Used: Christian De Luna, Roberto Mendoza.
Source: http://www.lagalaxy.com/news/2012/05/galaxy-and-san-jose-trade-penalty-kicks-1-1-draw

5/13/2012; Chicago Fire Reserves; 1-3; Sporting Kansas City Reserves; Toyota Park Practice Field
Orr Barouch (Michael Videira) 79; Korede Aiyegbusi (Luke Sassano) 26, Teal Bunbury (unassisted) 39, Teal Bunbury (Konrad Warzycha) 42
Red Card: Daniel Paladini 61, Paulo Nagamura 66
Chicago Fire Reserves: Paolo Tornaghi; Tony Walls, Kwame Watson-Siriboe, Stefan Antonijevic (Brendan King 64), Hunter Jumper; Corben Bone, Michael Videira, Daniel Paladini; Rafael Robayo (Kellen Gulley 57); Kheli Dube (Victor Pineda 52), Orr Barouch
Substitutes Not Used: Jay Nolly
Sporting Kansas City Reserves: Jon Kempin; Kevin Ellis, Konrad Warzycha, Lawrence Olum, Seth Sinovic; Peterson Joseph, Paulo Nagamura, Luke Sassano (Michael Thomas 70); Soony Saad, Teal Bunbury (Dom Dwyer 52), Korede Aiyegbusi
Substitutes Not Used: Steve Spangler, Cyprian Hedrick, Shawn Singh
Source: http://www.chicago-fire.com/news/2012/05/reserves-barouch-goal-isnt-enough-3-1-loss-sporting

5/14/2012; San Jose Earthquakes Reserves; 1-1; Chivas USA Reserves; Nutrilite Training Facility
Cesar Diaz Pizarro (Sercan Guvenisik) 2; Cesar Romero (unassisted) 93+
San Jose Earthquakes Reserves: David Bingham, Jed Zayner, Brad Ring, Ike Opara (c), Josh Suggs, Sam Garza (Sam Cronin 57), Anthony Ampaipitakwong, Jean-Marc Alexandre, Ellis McLoughlin, Sercan Guvenisik (Brian Randall 71), Cesar Diaz Pizarro.
Substitutes Not Used: Evan Newton, Jacob Hustedt, Raul Cardona, Julio Cervantes, Ivan Yanez.
Chivas USA Reserves: Tim Melia, Marky Delgado, Rauwshan McKenzie (c), Scott Gordon, Jorge Villafaña, Ryan Smith (Cesar Romero 34), Blair Gavin (Jorge Marquez 61), Oswaldo Minda, Paolo Cardozo, Laurent Courtois (Javier Mena 74), Casey Townsend.
Substitutes Not Used: Patrick McLain.
Source: http://www.sjearthquakes.com/news/2012/05/reserve-league-quakes-score-early-chivas-usa-late-1-1-draw

5/14/2012; Philadelphia Union Reserves; 2-2; New York Red Bulls Reserves; Chester Park
Antoine Hoppenot (Josue Martinez) 11, Jack McInerney (Penalty Kick) 46; Walter Hines (Unassisted) 68, Corey Hertzog (Unassisted) 88
Philadelphia Union Reserves: Chase Harrison; Porfirio Lopez; Matt Baker; Cristhian Hernandez (Shane Campbell 71); Jimmy McLaughlin; Amobi Okugo ; Zach Pfeffer; Andy Adlard (Darius Madison 68); Josue Martinez (Colton Storm 57); Antoine Hoppenot (Chandler Hoffman 81); Jack McInerney
New York Red Bulls Reserves: Jeremy Vuolo; Jonathan Borrajo; Ousmane Sanogo; Christian Ibeagha; Connor Lade; Corey Hertzog; Ryan Maduro; Julian Stahler; Giorgi Chirgadze; Jhonny Arteaga; Juan Agudelo (Walter Hines 56)
Source: http://www.philadelphiaunion.com/news/2012/05/union-reserves-draw-red-bulls-reserves-2-2

5/20/2012; New England Revolution Reserves; 0-0; DC United Reserves; Gillette Stadium
New England Revolution Reserves: Bobby Shuttleworth, Tyler Polak, John Lozano, Darrius Barnes, Alec Purdie, Kelyn Rowe, Dominik Machado (Diego Fagundez 40), Fernando Cardenas (Mitch Taintor 69), Michael Roach, Bjorn Runstrom (Jack Hilger 76), Jose Moreno (Ramiro Osorio 56)
Substitutes Not Used: Tim Murray (GK)
DC United Reserves: Andrew Dykstra, Kurt Morsink, Ethan White, Cristhyan Najar, Marcelo Saragosa, Stephen King, Lewis Neal (Dejan Jakovic 89), Kenny Mansally, Denis Najar, Jannik Eckenrode, Irvin Herrera
Substitutes Not Used: None
Source: http://www.revolutionsoccer.net/news/2012/05/reserves-revolution-0-dc-united-0

5/23/2012; Colorado Rapids Reserves; 2-2; Houston Dynamo Reserves; DSG Park Field 20
Edu (Jamie Smith) 23, Kevin Garcia (Kohei Yamada) 90+; Je-Vaughn Watson (unassisted) 49, Colin Rolfe 88'
Colorado Rapids Reserves: Steward Ceus, Davy Armstrong (Kevin Garcia 46), Scott Palguta, Bobby Burling, Luis Zapata, Jamie Smith (Kohei Yamada 63), Harrison Henao (Shane O'Neill 74), Joseph Nane, Edu, Kamani Hill, Andre Akpan (Idrissa Camara 79).
Substitutes Not Used: Ian Joyce, Ricardo Perez
Houston Dynamo Reserves: Tyler Deric, Warren Creavalle (Christian Gonzalez 88), Andre Hainault (Bradley Bourgeois 66), Nathan Sturgis, Oscar Recio, Colin Clark, Alex Dixon, Luiz Camargo (Je-Vaughn Watson 46), Josue Soto (Brian Ownby 70), Macoumba Kandji (Colin Rolfe 81), Cam Weaver.
Substitutes Not Used: Tally Hall
Source: http://www.coloradorapids.com/news/2012/05/reserves-tie-houston-2-2-late-goal

* Check first goal time.
5/26/2012; Toronto FC Reserves; 3-2; Philadelphia Union Reserves; BMO Field
Efrain Burgos Jr. 34, Efrain Burgos Jr. 52, Oscar Cordon 65; Jack McInerney 14, Jack McInerney 56
Toronto FC Reserves: Quillan Roberts; Richard Eckersley (Oscar Cordon 45), Ty Harden, Dicoy Williams (Chris Manella 72), Tyler Pasher; Terry Dunfield, Matt Stinson, Luis Boa Morte (Mario Orestano 73); Nick Soolsma (Keith Makubuya 45), Danny Koevermans (Jordan Hamilton 45), Efrain Burgos Jr.
Philadelphia Union Reserves: Brian Rowe; Greg Jordan, Christian Ibeagha, Andreas Chronis, Jimmy McLaughlin; Amobi Okugo, Antoine Hoppenot, Josue Martinez, Cristhian Hernandez; Chandler Hoffman, Jack McInerney
Source: http://www.torontofc.ca/news/2012/05/cordon-strikes-reserves-winner

5/27/2012; Portland Timbers Reserves; 1-2; Vancouver Whitecaps Reserves; Jeld-Wen Field; 5218
Andrew Jean-Baptiste (Franck Songo'o) 70; Floyd Franks (Russell Teibert) 18, Darren Mattocks (Michael Nanchoff) 28
Vancouver Whitecaps Reserves: Brad Knighton; Greg Klazura, Carlyle Mitchell, Jordan Harvey (Stanese 71), Russell Teibert, Floyd Franks, Matt Watson (Bryce Alderson 68), Etienne Barbara, Michael Nanchoff, Darren Mattocks (Long Tan 60), Omar Salgado (Caleb Clarke 81)
Substitutes Not Used: None
*TOTAL SHOTS: 13; SHOTS ON GOAL: 7; FOULS: 9; OFFSIDES: 2; CORNER KICKS: 6; SAVES: 6
Portland Timbers Reserves: Joe Bendik; Mike Chabala, Ryan Kawulok, Andrew Jean-Baptiste, Freddie Braun, Franck Songo'o, Sebastian Rincón, Lovel Palmer, Reiss (Chris Taylor 21), Brent Richards, Mike Fucito (Charles Renken 82)
Substitutes Not Used: GK Reese
Source: http://www.portlandtimbers.com/news/2012/05/whitecaps-fc-reserves-defeat-timbers-reserves-2-1

6/1/2012; Seattle Sounders Reserves; 1-2; Vancouver Whitecaps Reserves; Starfire Sports Complex
Source: http://www.soundersfc.com/news/articles/2012/06-june/zakuani-returns-reserves-fall-to-whitecaps.aspx

6/2/2012; Portland Timbers Reserves; 1-2; Los Angeles Galaxy Reserves; Jeld-Wen Field; Paul Nottman, Farhad Dadhko, Oscar Rivas, Cesar Tercero; 6118
Eric Alexander (pk) 69; Leonardo (Kyle Nakazawa), Chad Barrett (Jack McBean, Kyle Nakazawa) 30
Portland Timbers Reserves: Joe Bendik; Cam Vickers, Ryan Kawulok, Andrew Jean-Baptiste, Chris Taylor, Charles Renken (Macchione 88), Freddie Braun, Eric Alexander, Dane Richards, Sebastian Rincón, Mike Fucito (Tracy Hasson 65)
* Substitutes Not Used: GK Rowe, Duenas^, Gyu-Won*
Los Angeles Galaxy Reserves: Josh Saunders; Tommy Meyer, Leonardo (Rodriguez 10), Lopes, Bryan Jordan, Rafael Garcia, Kenney Walker, Kyle Nakazawa, Michael Stephens, Jack McBean (Sebastian Velasquez 70), Chad Barrett (Jose Villarreal 84)
* Substitutes Not Used: GK Perk, Torre^
Source: http://www.portlandtimbers.com/news/2012/06/reserves-recap-galaxy-reserves-earn-2-1-win-over-timbers-reserves

6/2/2012; Montreal Impact Reserves; 2-2; Toronto FC Reserves; Centre Claude-Robillard
Sinisa Ubiparipovic 49, Eduardo Sebrango 64; Keith Makubuya 11, Own Goal 92
Montreal Impact Reserves: Evan Bush; Zarek Valentin (Bryan Arguez 45), Shavar Thomas, Karl Ouimette, Josh Gardner (Tyson Wahl 45); Sinisa Ubiparipovic, Miguel Montano, Lamar Neagle, Calum Mallace; Andrew Wenger (Eduardo Sebrango 45), Justin Braun (Carl Haworth 45)
* Unused Substitutes: Greg Sutton; 
Toronto FC Reserves: Quillan Roberts; Jeremy Hall (Roberto Galle 85), Dicoy Williams, Ty Harden (Nikola Paunic 74), Miguel Aceval (Tyler Pasher 62); Junior Burgos, Matt Stinson, Mario Orestano, Nick Soolsma, Keith Makubuya, Jordan Hamilton
Source: http://www.impactmontreal.com/fr/news/2012/06/reserve-league-impact-ties-toronto-fc-2-2

6/5/2012; Montreal Impact Reserves; 1-2; New England Revolution Reserves; Centre Claude-Robillard
Felipe 10; Alec Purdie 1, Jeremiah White 51
Montreal Impact Reserves: Greg Sutton; Davy Arnaud, Nelson Rivas (Sanna Nyassi 68), Shavar Thomas, Jeb Brovsky; Patrice Bernier, Collen Warner, Justin Mapp (Tyson Wahl 45), Felipe (Sinisa Ubiparipovic 45); Bernardo Corradi (Miguel Montano 45), Andrew Wenger
* Unused Substitutes: Evan Bush
New England Revolution Reserves: Bobby Shuttleworth; Tyler Polak, Darrius Barnes, John Lozano, Devin Devoy; Kelyn Rowe (Jack Hilger 53), Michael Roach, Jeremiah White (Mitch Taintor 68), Dominik Machado; Diego Fagundez, Alec Purdie (Blake Brettschneider 81)
Source: http://www.impactmontreal.com/en/news/2012/06/reserve-league-impact-loses-2-1-new-england-revolution

6/8/2012; Chivas USA Reserves; 3-1; San Jose Earthquakes Reserves; Home Depot Center; Magic Berenjio, Steve Elliot, Gordon Lukehart, Shahin Torosian
Paolo Cardozo (Cesar Romero) 7, Miller Bolaños (unassisted) 64, Paolo Cardozo (unassisted) 66; Shea Salinas (Sam Garza) 82
Chivas USA Reserves: Tim Melia (Patrick McLain 46), S. Morrison (Erick Gonzalez 78), John Valencia, Bobby Burling, Marky Delgado, Ben Zemanski (Scott Gordon 46), Jorge Villafaña, Miller Bolaños, Paolo Cardozo (T. Luzardi 79), Cesar Romero, Casey Townsend (Ben Spencer 81)
* Subs not used: A. Dheming, Ryan Smith
San Jose Earthquakes Reserves: Evan Newton, Brad Ring, Alberto Navarro, Yousef Samy, Josh Suggs, Rafael Baca, Shea Salinas, Jake Hustedt (Roberto Mendoza 87), Ellis McLoughlin (Angel Heredia 66), Sam Garza, Cesar Diaz Pizarro
Source: http://www.cdchivasusa.com/news/2012/06/reserves-chivas-usa-defeats-san-jose-earthquakes

6/9/2012; Colorado Rapids Reserves; 3-1; Sporting Kansas City Reserves; DSG Park Field 20
Jamie Smith (unassisted) 31,Jamie Smith (Andre Akpan) 54, Kamani Hill (Ross LaBauex) 55; Soony Saad (unassisted) 63
Colorado Rapids Reserves: Ian Joyce, Davy Armstrong (Idrissa Camara 78), Eddie Ababio, Joseph Nane, Luis Zapata; Brian Mullan (Ross LaBauex 46), Shane O'Neill, Kamani Hill (Harrison Henao 63), Jamie Smith (Dillon Serna 69), Edu, Andre Akpan (Tony Cascio 73)
* Substitutes Not Used: Steward Ceus, *Avery Ball
Sporting Kansas City Reserves: Jon Kempin; Michael Harrington, Konrad Warzycha, Michael Thomas, Kevin Ellis (Erik Palmer-Brown 70); Kyle Miller, Sana Camara, David Leichty (Evans Prophe 76); Dom Dwyer, Soony Saad, Jacob Peterson (Eduardo Moreno 32)
Source: http://www.coloradorapids.com/news/2012/06/recap-smith-goals-lead-reserves-over-skc

6/9/2012; D.C. United Reserves; 4-3; Toronto FC Reserves; RFK Stadium
Stephen King 16, Maicon Santos (Kurt Morsink, Emiliano Dudar) 20, Chris Pontius 53, Hamdi Salihi (Ricky Burke) 80; Peri Marosevic (Keith Makubuya) 29, Keith Makubuya (Nick Soolsma) 47, Nick Soolsma 89
D.C. United Reserves: Joe Willis; Chris Korb, Ethan White, Emiliano Dudar (Ricky Burke 45), Lewis Neal; Kurt Morsink, Marcelo Saragosa, Nick DeLeon (Andy Najar 66), Stephen King (Denis Najar 87); Maicon Santos (Irvin Herrera 83), Chris Pontius (Hamdi Salihi 62)
Toronto FC Reserves: Quillan Roberts; Ty Harden (Roberto Galle 28), Dicoy Williams, Miguel Aceval, Tyler Pasher; Matt Stinson, Oscar Cordon (Michael Wagenknecht 83), Junior Burgos (Mario Orestano 69); Nick Soolsma, Keith Makubuya, Peri Marosevic
Source: http://www.dcunited.com/news/2012/06/reserve-league-dc-united-4-toronto-fc-3

6/10/2012; Columbus Crew Reserves; 1-0; New England Revolution Reserves; Columbus Crew Stadium
Bernardo Anor (Ben Speas) 81;
Columbus Crew Reserves: Matt Lampson, Josh Williams, Carlos Mendes (Korey Veeder 79), Eric Gehrig, Nemanja Vukovic (Aubrey Perry 66), Cole Grossman, Kevan George (Eddie Gaven 84), Milovan Mirosevic (Ben Speas 73), Bernardo Anor, Ethan Finlay, Jairo Arrieta (Aaron Horton 46)
* Substitutes not used: Carter Richardson^, Sebastian Miranda,
New England Revolution Reserves: Bobby Shuttleworth, John Lozano, Darrius Barnes, Tyler Polak, Michael Roach, Ryan Kinne, Pat Boucher, Sainey Nyassi (Fernando Cardenas 34), Jeremiah White (Bjorn Runstrom 46), Diego Fagundez, Blake Brettschneider
* Substitutes not used: Tyler Zon^, C.J. Burnham^, Florian Lechner
Source: http://www.thecrew.com/news/2012/06/mls-reserve-league-crew-defeats-new-england-1-0

6/12/2012; Real Salt Lake Reserves; 2-1; Chicago Fire Reserves; RSL Training Field
Ned Grabavoy (penalty kick) 78, Sebastian Velasquez (unassisted) 92; Orr Barouch (penalty kick) 93
Real Salt Lake Reserves: Kyle Reynish, Terukazu Tanaka, Carlos Salcedo, Chris Estridge, Kenny Mansally (Jordan Allen 70), Sebastian Velasquez, Yordany Alvarez, Javier Morales (Enzo Martinez 45), Jonny Steele (Nico Muniz 62), Chris Tweed-Kent (Matias Quiroga 45), Cody Arnoux (Ned Grabavoy 76)
Chicago Fire Reserves: Paolo Tornaghi (Jay Nolly 45), Tony Walls, Hunter Jumper, Kwame Watson-Siriboe, Joel Salmeron (Anthony Torres 82), Keaton Albert, Andrew Conner, Mike Videira, Corben Bone, Orr Barouch, Federico Puppo (Andrew Oliver 70)
Source: http://www.realsaltlake.com/news/2012/06/mls-reserve-league-post-it-notes-v-chi-tuesday-june-12-2012

6/12/2012; Vancouver Whitecaps Reserves; 1-3; Los Angeles Galaxy Reserves; University of British Columbia
Bryce Alderson 68; Jose Villarreal (Mike Stephens) 47, Jack McBean (Kyle Nakazawa) 86, Jose Villarreal 90+1
Vancouver Whitecaps Reserves: Brad Knighton; Greg Klazura, Carlyle Mitchell, Jordan Harvey (Ben Fisk 82), Russell Teibert; Etienne Barbara (Bryce Alderson 58), Matt Watson (Daniel Stanese 78), Floyd Franks (Anton Peterlin 45); Eric Hassli (Caleb Clarke 73), Camilo Sanvezzo, Michael Nanchoff
* Substitutes not used: 1.Marco Carducci*
Los Angeles Galaxy Reserves: Josh Saunders; Oscar Sorto, Tommy Meyer, Andy Iro, Rafael Garcia; Bryan Jordan (Sebastian Velasquez 73), Kenney Walker, Mario Rodriguez, Kyle Nakazawa; Jose Villarreal, Mario Rodriguez (Jack McBean 73)
Source: http://www.whitecapsfc.com/news/2012/06/whitecaps-fc-reserves-fall-home-la-galaxy-reserves

6/16/2012; Houston Dynamo Reserves; 3-2; FC Dallas Reserves; BBVA Compass Stadium
Cam Weaver (Josue Soto) 71, Colin Rolfe (Warren Creavalle) 77, Cam Weaver (Warren Creavalle) 90+; Kellyn Acosta (Moises Hernandez) 31, Andrew Wiedeman 49
Houston Dynamo Reserves: Tyler Deric, Oscar Recio, Nathan Sturgis, Bradley Bourgeois, Warren Creavalle, Brian Ownby, Josue Soto, Luiz Camargo (Juan Lopez 46), Colin Clark (Christian Gonzalez 42), Cam Weaver, Macoumba Kandji (Colin Rolfe 46)
* Substitutes not used: Erich Marscheider
FC Dallas Reserves: Chris Seitz (Richard Sanchez 46), Mike Ambrose, Victor Ulloa, Aaron Guillen, Moises Hernandez, Ian Kalis (Danny Garcia 77), Bruno Guarda, James Marcelin, Kellyn Acosta, Andrew Wiedeman (Ruben Luna 84), Jonathan Top
* Substitutes not used: none
Source: http://www.houstondynamo.com/news/2012/06/cam-weaver-brace-powers-dynamo-reserves-past-fc-dallas-reserves

6/17/2012; New England Revolution Reserves; 1-0; Columbus Crew Reserves; Gillette Stadium; Michael Solla, Scott Kachmark, Joseph Poremba, Bruno Mozzo
Sainey Nyassi (unassisted) 62; 
New England Revolution Reserves: Bobby Shuttleworth, Tyler Polak, Darrius Barnes, John Lozano, Flo Lechner, Alec Purdie, Kelyn Rowe (Sainey Nyassi 60), Clyde Simms (Blake Brettschneider 24, Mitch Taintor 60), Jeremiah White, Dimitry Imbongo, Diego Fagundez
Substitutes Not Used: Tyler Zon*, Bjorn Runstrom
Columbus Crew Reserves: Matt Lampson, Shawn Francis, Julius James, Eric Gehrig (Korey Veeder 46), Aubrey Perry, Bernardo Anor (Ben Speas 67), Cole Grossman, Chris Birchall, Ethan Finlay (Irakli Khutsidze 70), Aaron Schoenfeld (Aaron Horton 46), Olman Vargas
Source: http://www.revolutionsoccer.net/news/2012/06/reserves-revs-1-crew-0

6/18/2012; Chivas USA Reserves; 2-2; Portland Timbers Reserves; Home Depot Center; Daniel Radford, Steve Elliott, Bernie Hosu, Jesse Yzaguirre
Casey Townsend (Scott Gordon) 29, Sebastian Stachnik (Laurent Courtois) 69; Sebastian Rincon (Sal Zizzo) 13, Brent Richards (Ryan Kawulok) 57

Chivas USA Reserves: Tim Melia, Jorge Villafana (Anthony Dheming 68), Bobby Burling, Nelson Akwari, Scott Gordon (John Valencia 71), Marky Delgado, Paolo Cardozo (Laurent Courtois 46), T. Lusardi (Sebastian Stachnik 46), Eric Gonzalez, Casey Townsend, Ben Spencer (Ryan Smith 68)
* Subs not used: Patrick McLain, Cesar Romero.
Portland Timbers Reserves: Joe Bendik, Ryan Kawulok, Steve Purdy, Chris Taylor, Andrew Jean-Baptiste, Sal Zizzo (Charles Renken 62), Eric Alexander (Lovel Palmer 81), Sebastian Rincon, Freddie Braun, Mike Fucito (Bright Dike 72), Brent Richards
* Subs not used: Jake Gleeson, Mamadou Danso
Source: http://www.cdchivasusa.com/news/2012/06/reserves-chivas-2-portland-2

6/23/2012; Toronto FC Reserves; 1-1; New England Revolution Reserves; Downsview Park
Nikola Paunic 90; Michael Roach 32
Toronto FC Reserves: Quillan Roberts; Aaron Maund (Roberto Galle 61), Dicoy Williams, Logan Emory (Nikola Paunic 45), Alberto Giuliatto; Efrain Burgos Jr. (Ryan James 73), Oscar Cordon, Matt Stinson, Luis Silva (Sergio Camargo 56); Reggie Lambe, Keith Makubuya
New England Revolution Reserves: Bobby Shuttleworth; Tyler Polak, John Lozano, Darrius Barnes, Alec Purdie; Jeremiah White (Fernando Cardenas 23), Ryan Guy (Diego Fagundez 71), Nick Hoffman, Sainey Nyassi; Kyle Hall, Michael Roach
* Unused substitutes: ***Sotiri Varlokostas; **CJ Burnham
Source: http://www.torontofc.ca/news/2012/06/reserves-leave-it-late-draw

7/2/2012; New York Red Bulls Reserves; 1-3; Columbus Crew Reserves; Montclair State University; Jorge Gonzalez, Albert Calise, Adam Alfi, Bartek Cieslak
Mehdi Ballouchy (unassisted) 67; Jairo Arrieta (unassisted) 34, Olman Vargas (Justin Meram) 59, Justin Meram (Ben Speas, Bernardo Anor) 77
Columbus Crew Reserves: Matt Lampson, Eric Gehrig, Chad Marshall (Connor Klekota 59), Kevan George, Bernardo Anor, Cole Grossman, Ethan Finlay, Dilly Duka (Ben Speas 32), Justin Meram, Olman Vargas (Rhodes Moore 88), Jairo Arrieta (Aaron Horton 65)
Substitutes Not Used: Carter Richardson*
New York Red Bulls Reserves: Jeremy Vuolo, Jonathan Borrajo, Stephen Keel, Tyler Ruthven, Sean Sheridan, Victor Palsson (Michael Mazzullo 65), Ryan Maduro, Julian Stahler (Mael Corboz 46), Giorgi Chirgadze, Mehdi Ballouchy, Jhonny Arteaga
Substitutes Not Used: Roy Miller
Source: http://www.newyorkredbulls.com/news/2012/07/red-bulls-reserves-fall-crew-reserves-3-1

7/8/2012; New England Revolution Reserves; 1-1; New York Red Bulls Reserves; Gillette Stadium
Sainey Nyassi (Fernando Cardenas) 80; Quincy Amarikwa (Ryan Maduro) 52
New England Revolution Reserves: Alexander Bono, Tyler Polak, Flo Lechner, Darrius Barnes, Devin Devoy, Zak Boggs (Michael Roach 46), Stefanos Stamoulacatos, Ryan Guy, Fernando Cardenas, Sainey Nyassi, Diego Fagundez (Dominik Machado 68)
Substitutes Not Used: Matt Mozynski
New York Red Bulls Reserves: Jeremy Vuolo, Sean Sheridan, Chris Williams (Erik Sa 79), Tyler Ruthven, Jon Borrajo, Giorgi Chirgadze, Victor Palsson, Ryan Maduro, Mael Corboz, Quincy Amarikwa, Johnny Arteaga
Source: http://www.revolutionsoccer.net/news/2012/07/reserves-revs-1-red-bulls-1

7/21/2012; New York Red Bulls Reserves; 0-2; Philadelphia Union Reserves; J. Malcolm Simon Stadium, Newark, NJ
; Antoine Hoppenot (Roger Torres) 7, Jorge Perlaza (Zach Pfeffer) 78
New York Red Bulls Reserves: Jeremy Vuolo, Tyler Ruthven, Stephen Keel, Victor Palsson, Sean Sheridan, Mael Corboz (Eric Sa 46), Ryan Maduro, Mehdi Ballouchy, Johann Smith, Jose Angulo (Ethan Decker 65), Jhonny Arteaga
Philadelphia Union Reserves: Chase Harrison; Billy McConnell (Shane Campbell 76), Porfirio Lopez, Aubrey Perry, Ray Gaddis, Zach Pfeffer, Roger Torres (Colton Storm 45), Cristhian Hernandez, Antoine Hoppenot (Keegan Rosenberry 45), Jorge Perlaza, Keon Daniel (Chandler Hoffman 65)
Source: http://www.newyorkredbulls.com/news/2012/07/red-bulls-reserves-fall-philadelphia-reserves

7/22/2012; Columbus Crew Reserves; 4-1; D.C. United Reserves; Crew Training Facility, Obetz, OH; Andre Castel, John Safar, Corey Richardson, Aaron Vnuk
Olman Vargas (Nemanja Vukovic) 6, Aaron Schoenfeld (Emilio Renteria) 19, Eric Gehrig (Nemanja Vukovic) 53, Aaron Horton (Nemanja Vukovic) 85; Long Tan (Danny Cruz) 49

Columbus Crew Reserves: Matt Lampson, Ethan Finlay (Connor Klekota 69), Eric Gehrig (Brett Elder 88), Julius James (Alex Crognale 75), Nemanja Vukovic, Kevan George, Tony Tchani (Andrew Souders 85), Ben Speas, Emilio Renteria, Aaron Schoenfeld (Aaron Horton 58), Olman Vargas.
* Substitute Not Used: Nick Ciraldo^
D.C. United Reserves: Bill Hamid (Andrew Dykstra 46), Kurt Morsink, Ethan White, Emiliano Dudar, Martin Lopez (Jannik Eckenrode 46), Danny Cruz, Marcelo Saragosa, Stephen King, Damilola Adetola (Sebastian Cahe 61), Josh Wolff (Denis Najar 69), Long Tan
* Substitute Not Used: Maicon Santos
Source: http://www.thecrew.com/news/2012/07/mls-reserve-league-crew-defeats-dc-united-4-1-sunday-morning

7/23/2012; Vancouver Whitecaps Reserves; 1-3; Chivas USA Reserves; University of British Columbia
Kianz Froese 57; Laurent Courtois (Tristan Bowen) 41, Blair Gavin 66, Cesar Romero 70

Vancouver Whitecaps Reserves: Brad Knighton; Jordan Harvey (Bobby Jhutty 63), James Farenhorst, Carlyle Mitchell, Greg Klazura; Etienne Barbara, Matt Watson (Alex Marrello 78), Michael Nanchoff, Russell Teibert; Kianz Froese (Gagandeep Dosanjh 72), Kenny Miller (Atiba Harris 45)
* Substitutions not used: 24.Brian Sylvestre
Chivas USA Reserves: Tim Melia; Bobby Burling, Nelson Akwari, Jorge Villafana, Julio Chavez (Tony Dheming 58); Marco Delgado, Tristan Bowen, Blair Gavin (Eric Gonzalez 78); Laurent Courtois, Cesar Romero, Artur Aghasyan
Source: http://www.whitecapsfc.com/news/2012/07/whitecaps-fc-reserves-fall-home-chivas-usa-reserves

7/29/2012; Portland Timbers Reserves; 4-2; Chivas USA Reserves; JELD-WEN Field; Cesar Tercero, Farhad Dadkho, Andrew Marihart, Kevin Watts; 6576
Bright Dike (Kalif Alhassan) 27, Bright Dike (Mike Fucito, Rodney Wallace) 28, Sal Zizzo 37, Bright Dike 56; Tristan Bowen (Casey Townsend) 17, Marco Delgado (Laurent Courtois) 45
Chivas USA Reserves: Tim Melia; Jorge Villafaña, Rauwshan McKenzie, Ruben Rodriguez, Tony Dheming; Gonzalez (Rincon 88), Marco Delgado, Laurent Courtois (Cesar Romero 71); Tristan Bowen (Costa 76), Casey Townsend, Jose Correa
* Substitutes Not Used: GK McLain, M Gavin
Portland Timbers Reserves: Joe Bendik; Mike Chabala, Ryan Kawulok, Lovel Palmer, Rodney Wallace; Kalif Alhassan (Eric Alexander 45), Freddie Braun, Sal Zizzo (Charles Renken 69); Bright Dike (Hartley 89), Danny Mwanga (Sebastian Rincón 57), Mike Fucito (Macchione 83)
Source: http://www.portlandtimbers.com/news/2012/07/timbers-reserves-defeat-chivas-usa-reserves-4-2

8/3/2012; Chivas USA Reserves; 1-1; Vancouver Whitecaps Reserves; Home Depot Center; Alejandro Mariscal, Steve Elliott, Eduardo Mariscal, Felishia Mariscal
Casey Townsend (Jose Correa) 16; Atiba Harris (PK) 14
Chivas USA Reserves: Tim Melia, Jorge Villafaña, John Valencia, Rauwshan McKenzie (Nelson Akwari 45), Ruben Rodriguez (Tony Dheming 66), Laurent Courtois, I. Quezada (Cesar Romero 74), Juan Agudelo (Paolo Cardozo 45), Casey Townsend, Jose Correa, Tristan Bowen
* Subs not used: Patrick McLain
Vancouver Whitecaps Reserves: Brad Knighton (Brian Sylvestre 45), Greg Klazura, Russell Teibert, James Farenhorst, Carlyle Mitchell, Bryce Alderson (Jake Lensky 70), Atiba Harris (Brett Taylor 72), Matt Watson, Etienne Barbara (Bobby Jhutty 72), Kenny Miller (Caleb Clarke 67), Michael Nanchoff
Source: http://www.cdchivasusa.com/news/2012/08/reserves-chivas-usa-draws-vancouver-whitecaps

8/5/2012; Montreal Impact Reserves; 5-1; Philadelphia Union Reserves; Stade Saputo
Sanna Nyassi (Josh Gardner) 12, Sanna Nyassi (Lamar Neagle) 16, Sanna Nyassi (Dennis Iapichino) 29, Anthony Jackson-Hamel (Josh Gardner) 71, Anthony Jackson-Hamel (Evan James) 78; Jorge Perlaza (unassisted) 15
Red Card: Porfirio Lopez 63
Montreal Impact Reserves: Evan Bush; Dennis Iapichino, Karl Ouimette, Shavar Thomas, Jeb Brovsky (Evan James 45); Josh Gardner, Wandrille Lefevre (Anthony Jackson-Hamel 61), Calum Mallace, Lamar Neagle, Sinisa Ubiparipovic; Sanna Nyassi (Eduardo Sebrango 45, Victor Ndiaye 66)
* Subs not used: Greg Sutton, M-Zakaria Messoudi*, Maxime Tissot
Philadelphia Union Reserves: Chris Konopka; Greg Jordan, Ray Gaddis, Porfirio Lopez, Bakary Soumare, Cristhian Hernandez, Roger Torres, Jimmy McLoughlin, Josué Martinez (Will Beaugé 45), Chandler Hoffman, Jorge Perlaza 
Source: http://www.impactmontreal.com/en/news/2012/08/reserve-league-impact-beats-philadelphia-union-5-1-stade-saputo

8/5/2012; Colorado Rapids Reserves; 2-0; Real Salt Lake Reserves; DSG Park Field 20
Jamie Smith (unassisted) 22, Jamie Smith (Kamani Hill, Tony Cascio) 33;
Red Card: Paulo Araujo Jr. 28, Hunter Freeman 83
Colorado Rapids Reserves: Ian Joyce (Steward Ceus 46), Davy Armstrong, Hunter Freeman, Scott Palguta, Tyson Wahl, Shane O'Neill, Jamie Smith (Peri Marosevic 68), Wells Thompson (Dillon Serna 46), Kamani Hill (Avery Ball 82), Tony Cascio, Andre Akpan
 Real Salt Lake Reserves: Kyle Reynish, Enzo Martinez, Carlos Salcedo, Andy Iro, Kenny Mansally, Yordany Alvarez, Sebastian Velasquez, Maxime Partouche (Ross LaBauex 58), Luis Gil (Nico Muñiz 76), Paulo Jr., Emiliano Bonfigli (Justin Braun 65)
Source: http://www.coloradorapids.com/news/2012/08/reserves-pair-smith-goals-lifts-rapids-past-rsl

8/7/2012; Chivas USA Reserves; 0-1; Los Angeles Galaxy Reserves; Home Depot Center Field 4; Reed Christy, Cesar Calderon, Adrian Gonzalez, Steve Elliott
; Jack McBean 78
Chivas USA Reserves: Tim Melia, Rauwshan McKenzie , Nelson Akwari, Ruben Rodriguez , Anthony Dheming, Laurent Courtois, Paolo Cardozo, Jorge Villafaña, Cesar Romero, Casey Townsend (Jose Correa 46), Tristan Bowen.
* Subs not used: Patrick McLain, Jake McGuire, Ricardo Vazquez
Los Angeles Galaxy Reserves: Brian Perk (Brian Rowe 46), Bryan Jordan, Tommy Meyer, Andrew Boyens, Todd Dunivant, Hector Jimenez (Oscar Sorto 75), Kenney Walker (Raul Mendiola 72), Rafael Garcia (Dan Keat 80), Mike Magee (Jack McBean), Jose Villarreal, Mike Stephens
Source: http://www.cdchivasusa.com/news/2012/08/reserves-chivas-0-galaxy-1

8/12/2012; San Jose Earthquakes Reserves; 3-0; Seattle Sounders Reserves; Nutrilite Training Facility; 250
Sam Garza (unassisted) 57, Sercan Guvenisik (Mehdi Ballouchy) 61, Ramiro Corrales (Mehdi Ballouchy) 66; 
San Jose Earthquakes Reserves: David Bingham, Jacob Hustedt, Ike Opara, Brad Ring, Jed Zayner, Shea Salinas (Jesse Morales 68), Ramiro Corrales (Roberto Mendoza 80), Mehdi Ballouchy, Sam Garza (Elisama Padilla 83), Sercan Guvenisik, Khari Stephenson (Cristian Cruz 80).
* Subs not used: Evan Newton, Johnny Knutsen.
Seattle Sounders Reserves: Josh Ford, Mike Seamon, Daniel Steres, Jhon Kennedy Hurtado (Patrick Ianni 46), Leonardo Gonzalez (Bergueos 46), Cordell Cato, Servando Carrasco, Ayala (Isidro Prado-Huerta 59), Michael Tetteh, Steve Zakuani, Dominique Dismuke (Kyle Bjornethun 68).
Source: http://www.sjearthquakes.com/news/2012/08/reserve-league-quakes-cruise-3-0-win-vs-sea

8/13/2012; New England Revolution Reserves; 1-3; Montreal Impact Reserves; Gillette Stadium
Dimitry Imbongo (Flo Lechner) 45; Zakaria Massoudi (unassisted) 31, Sinisa Ubiparipovic (Lamar Neagle) 42, Andrew Wenger (unassisted) 61
New England Revolution Reserves: Tim Murray, Tyler Polak, Ivica Majstorovic, Darrius Barnes, Flo Lechner, Mike Roach (Kelyn Rowe 45), Mark Kerr, Diego Fagundez (Ramiro Osorio 75), Sainey Nyassi, Blake Brettschneider (Fernando Cardenas 49), Dimitry Imbongo (Willis Griffith 86)
* Substitutes Not Used: Matt Mozynski*
Montreal Impact Reserves: Evan Bush, Maxime Tissot, Karl Ouimette, Wandrille Lefevre, Calum Mallace, Steven Miller, Sinisa Ubiparipovic, Josh Gardner, Lamar Neagle, Zakaria Massoudi, Andrew Wenger
Source: http://www.revolutionsoccer.net/news/2012/08/reserves-montreal-3-new-england-1

8/13/2012; DC United Reserves; 3-1; New York Red Bulls Reserves; DCU Training Field
Suliman Dainkeh (Lewis Neal) 6, Josh Wolff (unassisted) 11, Danny Cruz (Ian Harkes) 50; Jhonny Arteaga (unassisted) 32
DC United Reserves: Joe Willis; Cristhyan Najar (Mike Chabala 66), Ethan White, Suliman Dainkeh, Lewis Neal; Stephen King, Kurt Morsink (Denis Najar 70), Marcelo Saragosa, Danny Cruz; Nigel Robinson, Josh Wolff (Ian Harkes 45)
New York Red Bulls Reserves: Jeremy Vuolo; Jonathan Borrajo, Stephen Keel, Tyler Ruthven, Matt Miazga; Lloyd Sam, Adam Najem (Arun Basvljevic), Victor Palsson, Johann Smith; Jose Angulo, Jhonny Arteaga (Corey Hertzog 45)
Source: http://www.dcunited.com/news/2012/08/reserve-league-dc-united-3-red-bull-ny-1

8/14/2012; Houston Dynamo Reserves; 2-0; Sporting Kansas City Reserves; Houston Amateur Sports Park
Cam Weaver (Josue Soto) 17, Cam Weaver (penalty kick) 80;
Red Card: Eric Kronberg 78
Houston Dynamo Reserves: Tyler Deric; Kofi Sarkodie, Warren Creavalle, Nathan Sturgis, Christian Gonzalez; Josue Soto, Ricardo Clark (Christian Diaz 82), Luiz Camargo (Alan Arellano 82); Alex Dixon, Cam Weaver (Colin Rolfe 81), Colin Clark
* Subs not used: Erich Marscheider, Brian Ownby.
Sporting Kansas City Reserves: Eric Kronberg; Korede Aiyegbusi, Neven Markovic (Joey Piatczyc 46), Konrad Warzycha, Kevin Ellis; Oriol Rosell, Michael Thomas (Trialist 3 80), Kyle Miller; Eduardo Moreno (Trialist 2 66), Trialist 1 (Scott Angevine 78), Soony Saad.
Source: http://www.houstondynamo.com/news/2012/08/dynamo-reserves-defeat-sporting-kc-reserves-2-0

8/15/2012; Chicago Fire Reserves; 3-1; Colorado Rapids Reserves; Toyota Park Practice Field; Miguel Panduro, Khalaf Al-Latayfeh, Nikola Aleksic, Keith Angel
Daniel Paladini (Dominic Oduro) 39, Dominic Oduro (Steven Kinney) 42, Victor Pineda (Corben Bone) 79; Andre Akpan (unassisted) 26
Chicago Fire Reserves: Jay Nolly; Hunter Jumper, Michael Videira, Steven Kinney (Grant Lillard 60), Dan Gargan; Victor Pineda, Alex (Marcus Epps 38), Daniel Paladini (Brian Warchek 68), Corben Bone (Kellen Gulley 77), Tony Walls; Dominic Oduro (Jeff Farina 55)
* Substitutes not used: Paolo Tornaghi, Shannon Seymour*
Colorado Rapids Reserves: Steward Ceus; Davy Armstrong, Francis Otira (Alex Braman 86), Tyson Wahl, Scott Palguta, Jaime Castrillon, Wells Thompson (Isaac Martinez 88), Shane O'Neill, Jamie Smith (Jamie Gilbert 80), Tony Cascio (Ricardo Perez 70), Andre Akpan
Source: http://www.chicago-fire.com/news/2012/08/reserve-league-fire-light-rapids-3-1

8/19/2012; Seattle Sounders Reserves; 3-2; Los Angeles Galaxy Reserves; Starfire Sports Complex
Source: http://www.soundersfc.com/news/articles/2012/08-august/reserves-vs-galaxy.aspx

8/21/2012; Montreal Impact Reserves; 1-0; New York Red Bulls Reserves; Stade Saputo
Andrew Wenger (Josh Gardner) 60; 
Montreal Impact Reserves: Evan Bush; Hassoun Camara, Nelson Rivas (Maxim Tissot 61), Shavar Thomas (Zarek Valentin 45), Karl Ouimette; Evan James (Zakaria Messoudi 66), Wandrille Lefevre, Calum Mallace, Sinisa Ubiparipovic (Kevin Luarca-Echeveria 90+1), Josh Gardner; Andrew Wenger
* Substitutes Not Used: Greg Sutton, Amine Meftouh
New York Red Bulls Reserves: Luis Robles; Jon Borrajo, Tyler Ruthven, Stephen Keel, Brandon Barklage; Josh Janniere, Adam Najem, Carl Haworth, Erik Sa (Ethan Decker); Jose Angulo, Jhonny Arteaga
* Substitutes Not Used: Jeremy Vuolo
Source: http://www.impactmontreal.com/en/news/2012/08/reserve-league-impact-shuts-out-new-york-red-bulls-1-0-claude-robillard

9/4/2012; San Jose Earthquakes Reserves; 2-0; Los Angeles Galaxy Reserves; Nutrilite Training Facility
Mehdi Ballouchy (unassisted) 9, Sercan Guvenisik (Khari Stephenson) 80; 
San Jose Earthquakes Reserves: Evan Newton, Jacob Hustedt, Brad Ring, Josh Suggs, Jordan Stewart, Sam Garza, Mehdi Ballouchy, Khari Stephenson, Elisama Padilla (Johnny Knutsen 87), Sercan Guvenisik (Jesse Morales 87), Matt Fondy.
* Substitutes Not Used: David Bingham, *Irving Ventura.
Los Angeles Galaxy Reserves: Brian Perk, Oscar Sorto, Andrew Boyens, Tommy Meyer, Bryan Gaul, Christian Wilhelmsson (Hector Jimenez 58), Kenney Walker, Rafael Garcia, Michael Stephens (Raul Mendiola 70), Jose Villarreal, Edson Buddle (Jack McBean 46).
Source: http://www.sjearthquakes.com/news/2012/09/reserves-quakes-top-galaxy-2-0

9/7/2012; New England Revolution Reserves; 1-2; Toronto FC Reserves; Gillette Stadium; Jan Halaska, Claudio Badea, Russ Wolf, Scott McGrail
Fernando Cardenas (Benny Feilhaber) 59; Matt Stinson (Stephen Almeida) 13, Quincy Amarikwa (Aaron Maund) 68
New England Revolution Reserves: Tim Murray, Tyler Polak, A.J. Soares, Bilal Duckett, Alec Purdie, Chris Tierney (Dominik Machado 66), Benny Feilhaber, Mike Roach (Diego Fagundez 78), Fernando Cardenas (Willis Griffith 82), Ramiro Osorio, Blake Brettschneider (Felix DeBona 70)
Substitutes Not Used: None
Toronto FC Reserves: Quillan Roberts, Stephen Almeida, Alain Sargeant, Adrian Cann, Tyler Pasher, Oscar Cordon (Nicholas Lindsay 64), Aaron Maund, Matt Stinson, Eric Avila (Keith Makubuya 86), Sergio Camargo (Dylan Sacramento 76), Quincy Amarikwa
Source: http://www.revolutionsoccer.net/news/2012/09/reserves-toronto-2-new-england-1

9/7/2012; Montreal Impact Reserves; 1-0; DC United Reserves; Stade Saputo
Calum Mallace (Andrew Wenger, Zakaria Messoudi) 87; 
Montreal Impact Reserves: Evan Bush; Hassoun Camara, Nelson Rivas (Karl Ouimette 45), Zarek Valentin, Dennis Iapichino (Maxim Tissot 71); Calum Mallace, Wandrille Lefevre (Zakaria Messoudi 68), Josh Gardner, Sanna Nyassi (Evan James 60), Sinisa Ubiparipovic; Andrew Wenger
Substitutes Not Used: Greg Sutton, Amine Meftouh*
DC United Reserves: Joe Willis; Robbie Russell (Christian Kershaw 65), Mike Chabala, Ethan White, Lars Eckenrode; Branko Boskovic (Andy Najar 45), Nigel Robinson, Lewis Neal, Patrick Foss; Maicon Santos (Danny Brundt 56), Long Tan
Source: http://www.impactmontreal.com/en/news/2012/09/reserve-league-impact-shuts-out-dc-united-1-0-stade-saputo

9/7/2012; Houston Dynamo Reserves; np; Real Salt Lake Reserves; Houston Amateur Sports Park
* Houston forfeit

9/9/2012; Seattle Sounders Reserves; 4-2; Chivas USA Reserves; Starfire Sports Complex; William Niccolls, Levi Rippy, Chipalo Street, Ray Moffatte Jr.
Eidur Gudjohnson (Sammy Ochoa) 22, Cordell Cato 62, Michael Seamon 69, Seth C'deBaca (Michael Seamon) 90; Jose Correa (Paolo Cardozo) 26, Own Goal (Daniel Steres) 60
Seattle Sounders Reserves: Josh Ford; Michael Seamon, Daniel Steres, Jeff Parke, Marc Burch; Cordell Cato, Servando Carrasco, Andy Rose, Alex Caskey (Seth C'deBaca 82); Eidur Gudjohnson (George Ogararu 46), Sammy Ochoa. 
Substitutes Not Used: Bryan Meredith. 
Chivas USA Reserves: Tim Melia; Ruben Rodriguez, Bobby Burling, Kevin Gallaugher, Anthony Dheming; Marco Delgado, Rodrigo Lopez, Laurent Courtois, Cesar Romero (Brian Kennedy 74); Paolo Cardozo, Jose Correa. 
Source: http://www.soundersfc.com/news/articles/2012/09-september/souners-defeat-chivas-usa-in-reserve-league-match.aspx

9/10/2012; Los Angeles Galaxy Reserves; 4-0; Portland Timbers Reserves; Training or University Field; Daniel Radford, Cesra Calderon, Omar Meza, Steve Elliott
Andrew Boyens (Kenney Walker) 30, Pat Noonan (Landon Donovan) 60, Landon Donovan (Pat Noonan) 65, Jack McBean (Oscar Sorto) 82; 
Los Angeles Galaxy Reserves: Brian Rowe; Hector Jimenez (Oscar Sorto 61), Andrew Boyens, Tommy Meyer, Bryan Gaul; Christian Wilhelmsson (Pat Noonan 57), Kenney Walker (Jack McBean 70), Rafael Garcia, Michael Stephens; Jose Villarreal (Raul Mendiola 83), Edson Buddle (Landon Donovan 57).
Substitutes Not Used: Brian Perk.
Portland Timbers Reserves: Joseph Bendik (Jake Gleeson 46); Ryan Kawulok, Mamadou Danso, Eric Brunner, Ian Hogg (Cam Vickers 71); Eric Alexander, Kalif Alhassan, Pablo Di Fiori (Sebastian Rincon 61), Danny Mwanga, Kris Boyd (Charles Renken 66), Mike Fucito.
Source: http://www.lagalaxy.com/news/2012/09/galaxy-ease-past-portland-4-0-reserve-league-action

9/10/2012; Vancouver Whitecaps Reserves; 1-2; San Jose Earthquakes Reserves; University of British Columbia
Atiba Harris (Russell Teibert) 21; Matt Fondy (Bryan Burke) 10, Jesus Morales 75
Vancouver Whitecaps Reserves: Brian Sylvestre; Greg Klazura, Carlyle Mitchell, Alain Rochat (Jackson Farmer 45), Sam Adekugbe (Sebastian Cabrera 64); Tiago Ulisses; Michael Nanchoff, Jacob Lensky (Brody Huitema 72), Matt Watson, Russell Teibert; Atiba Harris
* Substitutes not used: 1.Joe Cannon, 18.Brad Knighton
San Jose Earthquakes Reserves: Evan Newton; Jacob Hustedt, Irving Ventura, Josh Suggs, Jordan Stewart; Jesus Morales (Roberto Mendoza 86), Kris Clark, Cristian Cruz, Bryan Burke (Johnny Knutsen 82); Elisama Padilla, Matt Fondy
Source: http://www.whitecapsfc.com/news/2012/09/whitecaps-fc-reserves-end-home-schedule-san-jose-defeat

9/11/2012; D.C. United Reserves; 0-2; Montreal Impact Reserves; DCU Training Field
; Calum Mallace (Josh Gardner) 58, Eddie Sebrango 84
D.C. United Reserves: Joe Willis; Robbie Russell (Andik Vermansyah 45), Ethan White, Lars Eckenrode, Mike Chabala; Lewis Neal, Mechack Jerome, Raphael Augusto, Yann Ekra; Long Tan, Maicon Santos (Dennis Chin 28)
Montreal Impact Reserves: Evan Bush; Zarek Valentin, Dennis Iapichino (Maxim Tissot 64), Karl Ouimette, Amine Meftouh; Calum Mallace, Wandrille Lefevre, Josh Gardner, Evan James (Eddie Sebrango 71); Sinisa Ubiparipovic (Zakaria Messoudi 76), Andrew Wenger 
Source: http://www.dcunited.com/news/2012/09/reserve-league-dc-united-0-montreal-impact-2

9/11/2012; Sporting Kansas City Reserves; 0-1; Real Salt Lake Reserves; Sporting Kansas City Training Field
; Emiliano Bonfigli (penalty kick) 61
Red Card: Jon Kempin 58
Real Salt Lake Reserves: Kyle Reynish; Jamison Olave (Terukazu Tanaka 69), Carlos Salcedo, Chris Schuler, Kenny Mansally (Ive Burnett 72), Enzo Martinez, David Viana (Nico Muniz 80), Sebastian Velasquez, Luis Gil, Justin Braun, Emiliano Bonfigli
* Subs not used: Scott Angevine***, Antonio Murillo*
Sporting Kansas City Reserves: Jon Kempin; Kevin Ellis, Konrad Warzycha, Neven Markovic, Michael Harrington (Trialist 2 46); Oriol Rosell (Soony Saad 46), Jacob Peterson (Kyle Miller 46), Michael Thomas, Eduardo Moreno (Jacole Turner 60), Korede Aiyegbusi, Dom Dwyer (Trialist 1 46)
Source: http://www.sportingkc.com/news/2012/09/reserves-fall-1-0-real-salt-lake

9/11/2012; FC Dallas Reserves; 1-0; Colorado Rapids Reserves; FC Dallas Stadium
Scott Sealy (unassisted) 64; 
FC Dallas Reserves: Chris Seitz, Ian Kalis, Bobby Warshaw, Diogo de Almeida, Victor Ulloa, James Marcelin, Bruno Guarda, Bryan Leyva, Ricardo Villar, Jonathan Top (Scott Sealy 21, Marco Carrizales 78), Matias Jara.
Substitutes Not Used: Christian de Luna^, Jessie Gonzalez^.
Colorado Rapids Reserves: Steward Ceus, Luke Vercollone, Hunter Freeman, Scott Palguta, Tyson Wahl, Joseph Nane, Shane O'Neill, Anton Peterlin (Ricardo Perez 59), Kamani Hill, Jamie Smith, Seedy Bah (Isaac Martinez 75).
Source: http://www.fcdallas.com/news/2012/09/reserves-fc-dallas-1-colorado-rapids-0
9/16/2012; Portland Timbers Reserves; 3-2; Seattle Sounders Reserves; JELD-WEN Field; Greg Marshall, Jeremy Hanson, Carlos Tercero, LLucas Brooks; 8968
Mike Fucito (Kris Boyd) 5, Kris Boyd (Kalif Alhassan) 9, Dane Richards 15; Sean Morris (Cordell Cato) 49, Isidro Prado-Huerta (Dominique Dismuke) 79
Portland Timbers Reserves: Jake Gleeson (North 32), Ian Hogg, Futty Danso, Eric Brunner, Ryan Kawulok, Eric Alexander (Desir 78), Kalif Alhassan (Charles Renken 68), Dane Richards, Sebastian Rincón, Kris Boyd (Jose Adolfo Valencia 70), Mike Fucito (Cam Vickers 69)
Substitutes Not Used: M Bryan Gonzalez*, D Abdiel Morfin*
Seattle Sounders Reserves: Josh Ford, Michael Seamon, Zach Scott (Marc Burch 45), Daniel Steres, Beck, Cordell Cato (Dominique Dismuke 66), Servando Carrasco (Darren Caskey 45), McCormick, Isidro Prado-Huerta, Sean Morris, Sammy Ochoa (David Estrada 45)
Substitutes Not Used: GK Meredith
Source: http://www.portlandtimbers.com/news/2012/09/timbers-reserves-end-season-win-over-sounders-fc-reserves

9/18/2012; Chicago Fire Reserves; 2-1; FC Dallas Reserves; Toyota Park Practice Field; Dimitar Chavdarov, George Ghawi, Cesar Ibarra, Nikola Aleksic
Hunter Jumper (Victor Pineda) 5, Dominic Oduro (Corben Bone) 42; Scott Sealy (Ricardo Villar) 78
Chicago Fire Reserves: Jay Nolly; Tony Walls, Francis Otira, Grant Lillard, Hunter Jumper; Wells Thompson (Joel DeLass 71), Michael Videira; Dominic Oduro (Ricardo Aldape 67), Corben Bone, Victor Pineda; Guillermo Franco (Marcus Epps 61)
Substitutes Not Used: Paolo Tornaghi, Cody Witkowski*, Oscar Gonzales*
FC Dallas Reserves: David Gonzales; Victor Ulloa, Bobby Warshaw, James Marcelin, Christian de Luna; Bruno Guarda, Ricardo Villar, Bryan Leyva (Marco Ortiz 77), Marco Carrizales; Scott Sealy, Matias Jara
Substitutes Not Used: Alejandro Dominguez*, Richard Sanchez
Source: http://www.fcdallas.com/news/2012/09/reserves-chicago-fire-2-fc-dallas-1

9/22/2012; New England Revolution Reserves; 0-2; New York Red Bulls Reserves; Gillette Stadium; Michael Solla, Russ Wolf, Scott McGrail, Samuel Kinge
; Stephen Keel (unassisted) 63, Jose Angulo (Ethan Decker) 83
New England Revolution Reserves: Tim Murray, Christian Sady, Bilal Duckett, Kareem Smith, Alec Purdie, Mike Roach, Blair Gavin, Sainey Nyassi (Gabe Gissie 76), Fernando Cardenas, Dimitry Imbongo, Blake Brettschneider
Substitutes Not Used: Austin Avisa (GK), Stephen McCarthy
New York Red Bulls Reserves: Luis Robles, John Borrajo, Tyler Ruthven, Stephen Keel, Brandon Barklage (Andrew Welker 75), Lloyd Sam (Johnny Arteaga 57), Adam Najem, Nick Paterson, Corey Hertzog, Kenny Cooper (Jose Angulo 69), Armando Moreno (Ethan Decker 81)
Substitutes Not Used: Jeremy Vuodo (GK)
Source: http://www.newyorkredbulls.com/news/2012/09/red-bulls-reserves-defeat-revolution-reserves-2-0

9/23/2012; Seattle Sounders Reserves; 3-0; San Jose Earthquakes Reserves; Starfire Sports Complex; 
Source: http://www.soundersfc.com/news/articles/2012/09-september/sounders-conclude-reserve-league-season-with-3-0-win-over-earthquakes.aspx

9/25/2012; FC Dallas Reserves; 2-0; Sporting Kansas City Reserves; FC Dallas Stadium Complex; Mark de Clouet, David Amastae, Jeffery Greeson, Elie Aguilar
Bryan Leyva (Ricardo Villar) 34, Bryan Leyva (Matias Jara) 79; 
Red Card: Dom Dwyer 45
FC Dallas Reserves: Richard Sanchez, Victor Ulloa, James Marcelin, Bobby Warshaw, Diogo de Almieda, Kellyn Acosta, Bruno Guarda, Ricardo Villar, Marco Carrizales (Marco Ortiz 71), Bryan Leyva, Matias Jara.
Substitutes Not Used: Jesse Gonzalez.
Sporting Kansas City Reserves: Eric Kronberg, Korede Aiyegbusi, Neven Markovic (Leo Gibson 74) , Kevin Ellis, Konrad Warzycha, Michael Thomas, David Leichty, Peterson Joseph (John Sosa 65), Soony Saad, Dom Dwyer, Kyler Miller (Isai Gutierrez 86).
Substitutes Not Used: Steve Spangler, Eduardo Moreno*.
Source: http://www.fcdallas.com/news/2012/09/reserves-fc-dallas-2-sporting-kc-0

9/30/2012; Columbus Crew Reserves; 3-3; Philadelphia Union Reserves; Columbus Crew Stadium; Corey Richardson, Andre Castel, Tre Gaither, Devon Duling
Emilio Renteria (Aaron Schoenfeld) 23, Olman Vargas (Ben Speas) 53, Justin Meram (unassisted) 69; Lucky Mkosana (Matt Kassel) 1, Zach Pfeffer (unassisted) 63, Chandler Hoffman (unassisted) 73
Columbus Crew Reserves: Matt Lampson (Nick Noble 62), Ethan Finlay, Kevan George, Eric Gehrig, Nemanja Vukovic, Cole Grossman, Emilio Renteria (Aaron Horton 58), Aaron Schoenfeld, Ben Speas, Justin Meram, Olman Vargas.
* Substitutes not used: Alex Crognale^, Nathan Kohl^, Francisco Juarez.
Philadelphia Union Reserves: Chase Harrison, Matt Kassel, Greg Jordan, Keon Daniel, Gabriel Gómez, Zach Pfeffer, Roger Torres (Brian Nana-Sinkam 46), Cristhian Hernandez, Jimmy McLaughlin, Lucky Mkosana, Chandler Hoffman.
* Substitute Not Used: Chris Konopka, Antoine Hoppenot, Jack McInerney.
Source: http://www.thecrew.com/news/2012/09/reserve-league-crew-ties-union-3-3

9/30/2012; New York Red Bulls Reserves; 3-1; Toronto FC Reserves; Pittser Field, Montclair, NJ; Neil Barbulescu, Albert Calise, Alex Chilowicz, Kris Larwa
Own Goal (Dicoy Williams) 11, Armando Moreno (Jose Angulo) 36, Jose Angulo (Joe Cullen, Nicki Paterson) 88; Andrew Wiedeman (Keith Makubuya) 26
New York Red Bulls Reserves: Jeremy Vuolo; Jonathan Borrajo, Stephen Keel, Tyler Ruthven, Joe Funicello, Ethan Decker, Adam Najem, Nicki Paterson, Jhonny Arteaga (Joe Cullen 60), Jose Angulo, Armando Moreno
* Substitutes Not Used: None
Toronto FC Reserves: Quillan Roberts; Tyler Pasher (Alain Sargeant 46), Doneil Henry, Dicoy Williams, Stephen Almeida, Oscar Cordon, Eric Avila, Josh Janniere, Andrew Wiedeman (Nicholas Lindsay 46), Sergio Camargo, Keith Makubuya
* Substitute Not Used: Adrian Cann
Source: http://www.newyorkredbulls.com/news/2012/09/red-bulls-reserves-top-toronto-fc-3-1

10/6/2012; Toronto FC Reserves; np; DC United Reserves; BMO Field

10/9/2012; Philadelphia Union Reserves; 6-0; DC United Reserves; PPL Park
Chandler Hoffman (Roger Torres) 15, Chandler Hoffman (Zach Pfeffer) 56, Jimmy McLaughlin (Josué Martinez) 61, Josué Martinez (Jimmy McLaughlin) 80, Chandler Hoffman (pk) 84, Chandler Hoffman (Kenny Lassiter) 90;
Philadelphia Union Reserves: Chris Konopka, Billy McConnell (Lucky Mkosana 63), Lance Laing, Porfirio Lopez, Greg Jordan, Zach Pfeffer (Kenny Lassiter 79), Jimmy McLaughlin, Roger Torres (Chris Ramirez 76), Cristhian Hernandez, Chandler Hoffman, Josué Martinez.
* Subs not used: Chase Harrison,
DC United Reserves: Joe Willis, Ethan White (Raphael Augusto 65), Lars Eckenrode, Suliaman Dainkeh, Cristhyan Najar, Michael Chabala, Stephen King, Conor Shanosky, Kaiona Bailey, Denis Najar, Maicon Santos.
* Subs not used: Andrew Dykstra.
Source: http://www.philadelphiaunion.com/news/2012/10/union-reserves-dispatch-dc-united

10/10/2012; Real Salt Lake Reserves; 5-5; Houston Dynamo Reserves; America First Field, Sandy, UT
Emiliano Bonfigli (Kenny Mansally) 11, David Viana (Justin Braun) 25, Emiliano Bonfigli (Justin Braun) 60, Emiliano Bonfigli (Sebastian Velasquez) 69, Sebastian Velasquez (Justin Braun) 71; Cam Weaver (penalty kick) 14, Cam Weaver (Christian Gonzalez) 56, Cam Weaver 72, Colin Clark (penalty kick) 75, Alex Dixon (Carlos Ibarra) 80
Real Salt Lake Reserves: Kyle Reynish; Carlos Salcedo; Kwame Watson-Siriboe (Nico Muniz 33); Chris Schuler; Kenny Mansally; Yordany Alvarez; Enzo Martinez; David Viana (Jonny Steele 77); Emiliano Bonfigli (Paulo Jr. 80); Justin Braun
* Substitutes Not Used: Ive Burnett**; Antonio Murillo**; Bryan Hale*
Houston Dynamo Reserves: Tyler Deric; Warren Creavalle; Nathan Sturgis; Renan Coalho; Christian Gonzalez (Kofi Sarkodie 90+); Alex Dixon; Giles Barnes; Luiz Camargo; Colin Clark; Cam Weaver; Colin Rolfe (Carlos Ibarra 63)
* Substitutes Not Used: Erich Marscheider (GK); Jose Rodriguez**
Source: http://www.realsaltlake.com/news/2012/10/rsl-reserves-draw-houston-dynamo-5-5

10/10/2012; FC Dallas Reserves; 2-1; Chicago Fire Reserves; adidas Field, Frisco, TX; Jorge Hernandez Luna, Jesse McNeil III, Ramon Bernandez, David Amastae
Bobby Warshaw 4, Matias Jara (Scott Sealy, Victor Ulloa) 40; Dominic Oduro (Tony Walls, Dan Gargan) 36
FC Dallas Reserves: Richard Sanchez, Carlos Rodriguez, James Marcelin, Bobby Warshaw, Kellyn Acosta, Marco Carrizales (Marco Ortiz 67), Daniel Hernandez, Bryan Leyva (Ricardo Villar 81), Victor Ulloa, Scott Sealy, Matias Jara (Bobby Edet 87).
* Subs not used: Jesse Gonzalez.
Chicago Fire Reserves: Jay Nolly, Hunter Jumper, Steve Kimey, Kyle Hoffer (Joel de Lass 76), Dan Gargan, Wells Thompson, Michael Videira, Victor Pineda, Corben Bone, Tony Walls (Kellen Gulley 86), Dominic Oduro.
* Subs not used: Christian Lomelli, Marcus Epps.

10/12/2012; Los Angeles Galaxy Reserves; 6-0; Vancouver Whitecaps Reserves; Home Depot Center; Juan Guzman, Cesar Calderon, Omar Meza, Jesus Cisneros
Pat Noonan (Rafael Garcia) 8, Tommy Meyer (Unassisted) 55, Rafael Garcia (Pat Noonan, Bryan Gaul) 63, Andrew Boyens (Kenney Walker) 70, Jack McBean (Raul Mendiola) 88, Jack McBean (Raul Mendiola, Michael Stephens) 91+;
Los Angeles Galaxy Reserves: Brian Perk, Bryan Jordan (Oscar Sorto 68), Andrew Boyens, David Junior Lopes (Tommy Meyer 46), Bryan Gaul; Hector Jimenez, Kenney Walker, Rafael Garcia (Drew Murphy 85), Michael Stephens; Pat Noonan (Raul Mendiola 74), Edson Buddle (Jack McBean 46).
* Subs Not Used: Brian Rowe.
Vancouver Whitecaps Reserves: Brian Sylvestre; Greg Klazura, Martin Bonjour, Jun Marques Davidson, Sam Adekugbe; Russell Teibert, Michael Nanchoff, Tiago Ulisses, Jacob Lensky* (Jackson Farmer 63); Etienne Barbara (Kianz Froese 68), Omar Salgado.
* Subs Not Used: Brody Huitema^
Source: http://www.lagalaxy.com/news/2012/10/galaxy-win-reserve-league-division-title-6-0-victory-over-whitecaps

10/12/2012; DC United Reserves; 1-0; Philadelphia Union Reserves; DCU Training Field
Stephen King (Yann Ekra) 8;
DC United Reserves: Joe Willis (Andrew Dykstra 46); Cristhyan Najar, Ethan White, Emiliano Dudar, Mike Chabala; Wellington Paeckart, Conor Shanosky, Yann Ekra (Denis Najar 83), Stephen King, Raphael Augusto (Lance Rozeboom 72); Maicon Santos (Brandt 61)
Philadelphia Union Reserves: Chase Harrison; Billy McConnell (Kenny Lassiter 71), Jordan, Porfirio Lopez, Richards; McCaughlin, Matt Kassel (Witkowski), Cristhian Hernandez (Ramirez 77), Zach Pfeffer, Roger Torres; Chandler Hoffman
Source: http://www.dcunited.com/news/2012/10/reserve-league-dc-united-1-philadelphia-union-0

10/13/2012; Houston Dynamo Reserves; 2-1; Chicago Fire Reserves; Methodist Championship Field, Houston, TX
Cam Weaver (penalty kick) 5, Cam Weaver (Alex Dixon) 70; Victor Pineda (unassisted) 29
Houston Dynamo Reserves: Tyler Deric; Kofi Sarkodie, Warren Creavalle; Nathan Sturgis; Renan Coelho; Kofi Sarkodie; Alex Dixon, Giles Barnes (Brian Ownby), Luiz Camargo, Colin Clark; Cam Weaver; Brian Ching (Colin Rolfe 63)
* Substitutes Not Used: Erich Marscheider (GK); Jose Rodriguez**, Christian Gonzalez**, Carlos Ibarra**
Chicago Fire Reserves: Jay Nolly; Dan Gargan, Steven Kinney, Kyle Heffer, Hunter Jumper; Michael Videira, Corben Bone, Alex, Victor Pineda; Tony Walls (Marcus Epps 72), Kellen Gulley (Joel DeLass 64)
* Substitutes Not Used: Wells Thompson
Source: http://www.fcdallas.com/news/2012/10/reserves-fc-dallas-2-chicago-fire-1

10/17/2012; Philadelphia Union Reserves; W-L; Toronto FC Reserves; Chester Park
Forfeit

10/21/2012; DC United Reserves; 0-2; Columbus Crew Reserves; DCU Training Field
; Dilly Duka (Emilio Renteria) 45, Ethan Finlay 56
DC United Reserves: Joe Willis (Andrew Dykstra 46); Robbie Russell, Ethan White, Emiliano Dudar (Abdi Yusuf 58), Suliaman Dainkeh; Lance Rozeboom (James Doll 71), Conor Shanosky, Raphael Augusto, Stephen King; Michael Seaton, Long Tan (Jalen Robinson 46)
Columbus Crew Reserves: Matt Lampson; Rich Balchan, Alex Crognale, Eric Gehrig, Nemanja Vukovic; Kevan George, Tony Tchani, Ethan Finlay, Ben Speas; Dilly Duka (Evans 64), Emilio Renteria
Source: http://www.thecrew.com/news/2012/10/crew-reserves-capture-second-straight-title-2-0-win-dc

